<?xml version="1.0" encoding="UTF-8"?>
<additional>
	<poi id="0" lane=":6/7_0_0" pos="0"/>
	<poi id="1" lane=":2/7_0_0" pos="0"/>
	<poi id="2" lane=":2/6_0_0" pos="0"/>
	<poi id="3" lane=":3/2_0_0" pos="0"/>
	<poi id="4" lane=":3/8_0_0" pos="0"/>
	<poi id="5" lane=":2/7_0_0" pos="0"/>
	<poi id="6" lane=":1/1_0_0" pos="0"/>
	<poi id="7" lane=":5/4_0_0" pos="0"/>
	<poi id="8" lane=":0/3_0_0" pos="0"/>
	<poi id="9" lane=":2/3_0_0" pos="0"/>
	<poi id="10" lane=":9/2_0_0" pos="0"/>
	<poi id="11" lane=":6/9_0_0" pos="0"/>
	<poi id="12" lane=":0/5_0_0" pos="0"/>
	<poi id="13" lane=":0/0_0_0" pos="0"/>
	<poi id="14" lane=":0/5_0_0" pos="0"/>
	<poi id="15" lane=":4/4_0_0" pos="0"/>
	<poi id="16" lane=":0/2_0_0" pos="0"/>
	<poi id="17" lane=":3/3_0_0" pos="0"/>
	<poi id="18" lane=":5/3_0_0" pos="0"/>
	<poi id="19" lane=":7/1_0_0" pos="0"/>
	<poi id="20" lane=":3/1_0_0" pos="0"/>
	<poi id="21" lane=":2/9_0_0" pos="0"/>
	<poi id="22" lane=":5/5_0_0" pos="0"/>
	<poi id="23" lane=":9/6_0_0" pos="0"/>
	<poi id="24" lane=":6/0_0_0" pos="0"/>
	<poi id="25" lane=":6/8_0_0" pos="0"/>
	<poi id="26" lane=":2/4_0_0" pos="0"/>
	<poi id="27" lane=":1/1_0_0" pos="0"/>
	<poi id="28" lane=":6/5_0_0" pos="0"/>
	<poi id="29" lane=":7/8_0_0" pos="0"/>
	<poi id="30" lane=":9/3_0_0" pos="0"/>
	<poi id="31" lane=":4/0_0_0" pos="0"/>
	<poi id="32" lane=":4/6_0_0" pos="0"/>
	<poi id="33" lane=":8/1_0_0" pos="0"/>
	<poi id="34" lane=":9/0_0_0" pos="0"/>
	<poi id="35" lane=":8/0_0_0" pos="0"/>
	<poi id="36" lane=":2/5_0_0" pos="0"/>
	<poi id="37" lane=":9/7_0_0" pos="0"/>
	<poi id="38" lane=":6/1_0_0" pos="0"/>
	<poi id="39" lane=":8/3_0_0" pos="0"/>
	<poi id="40" lane=":1/3_0_0" pos="0"/>
	<poi id="41" lane=":3/2_0_0" pos="0"/>
	<poi id="42" lane=":0/9_0_0" pos="0"/>
	<poi id="43" lane=":3/8_0_0" pos="0"/>
	<poi id="44" lane=":7/3_0_0" pos="0"/>
	<poi id="45" lane=":7/0_0_0" pos="0"/>
	<poi id="46" lane=":0/3_0_0" pos="0"/>
	<poi id="47" lane=":7/0_0_0" pos="0"/>
	<poi id="48" lane=":7/6_0_0" pos="0"/>
	<poi id="49" lane=":6/3_0_0" pos="0"/>
</additional>
