<?xml version="1.0" encoding="UTF-8"?>
<additional>
	<poi id="0" x="300" y="200" color="1,0,0"/>
</additional>
