<?xml version="1.0" encoding="UTF-8"?>
<additional>
	<poi id="0" lane=":8/4_0_0" pos="0"/>
	<poi id="1" lane=":5/1_0_0" pos="0"/>
	<poi id="2" lane=":2/9_0_0" pos="0"/>
	<poi id="3" lane=":7/9_0_0" pos="0"/>
	<poi id="4" lane=":7/2_0_0" pos="0"/>
	<poi id="5" lane=":8/3_0_0" pos="0"/>
	<poi id="6" lane=":8/9_0_0" pos="0"/>
	<poi id="7" lane=":7/8_0_0" pos="0"/>
	<poi id="8" lane=":3/6_0_0" pos="0"/>
	<poi id="9" lane=":5/2_0_0" pos="0"/>
	<poi id="10" lane=":3/2_0_0" pos="0"/>
	<poi id="11" lane=":3/8_0_0" pos="0"/>
	<poi id="12" lane=":1/7_0_0" pos="0"/>
	<poi id="13" lane=":2/6_0_0" pos="0"/>
	<poi id="14" lane=":6/3_0_0" pos="0"/>
	<poi id="15" lane=":9/4_0_0" pos="0"/>
	<poi id="16" lane=":3/5_0_0" pos="0"/>
	<poi id="17" lane=":3/0_0_0" pos="0"/>
	<poi id="18" lane=":8/4_0_0" pos="0"/>
	<poi id="19" lane=":1/7_0_0" pos="0"/>
	<poi id="20" lane=":9/5_0_0" pos="0"/>
	<poi id="21" lane=":6/3_0_0" pos="0"/>
	<poi id="22" lane=":2/6_0_0" pos="0"/>
	<poi id="23" lane=":1/5_0_0" pos="0"/>
	<poi id="24" lane=":2/3_0_0" pos="0"/>
	<poi id="25" lane=":3/7_0_0" pos="0"/>
	<poi id="26" lane=":0/6_0_0" pos="0"/>
	<poi id="27" lane=":3/4_0_0" pos="0"/>
	<poi id="28" lane=":1/5_0_0" pos="0"/>
	<poi id="29" lane=":1/7_0_0" pos="0"/>
	<poi id="30" lane=":2/3_0_0" pos="0"/>
	<poi id="31" lane=":9/0_0_0" pos="0"/>
	<poi id="32" lane=":4/5_0_0" pos="0"/>
	<poi id="33" lane=":1/0_0_0" pos="0"/>
	<poi id="34" lane=":0/2_0_0" pos="0"/>
	<poi id="35" lane=":6/4_0_0" pos="0"/>
	<poi id="36" lane=":0/0_0_0" pos="0"/>
	<poi id="37" lane=":0/1_0_0" pos="0"/>
	<poi id="38" lane=":0/9_0_0" pos="0"/>
	<poi id="39" lane=":7/3_0_0" pos="0"/>
</additional>
